


 21 21  0  0  0  0  0  0  0  0999 V2000
   13.8295   -3.5306   13.6788 C   0  0  0  0  0  0  0  0  0  0  0  0
   13.7323   -3.2277   12.3773 C   0  0  0  0  0  0  0  0  0  0  0  0
   14.3774   -2.0607   11.7848 C   0  0  0  0  0  0  0  0  0  0  0  0
   13.7720   -0.8472   11.7984 C   0  0  0  0  0  0  0  0  0  0  0  0
   12.3815   -0.5798   12.3337 C   0  0  0  0  0  0  0  0  0  0  0  0
   14.4296    0.3907   11.2323 C   0  0  0  0  0  0  0  0  0  0  0  0
   15.9186    0.2384   10.9458 C   0  0  0  0  0  0  0  0  0  0  0  0
   16.1958   -1.0970   10.2708 C   0  0  0  0  0  0  0  0  0  0  0  0
   15.7663   -2.3026   11.1502 C   0  0  0  0  0  0  0  0  0  0  0  0
   15.7821   -3.5486   10.2302 C   0  0  0  0  0  0  0  0  0  0  0  0
   16.8164   -2.5134   12.2695 C   0  0  0  0  0  0  0  0  0  0  0  0
   11.8643   -4.6608   14.5175 C   0  0  0  0  0  0  0  0  0  0  0  0
   13.2073   -4.6659   14.3579 C   0  0  0  0  0  0  0  0  0  0  0  0
   14.1080   -5.7880   14.8268 C   0  0  0  0  0  0  0  0  0  0  0  0
   10.5307   -6.7246   14.4431 C   0  0  0  0  0  0  0  0  0  0  0  0
   11.0612   -5.6971   15.1271 C   0  0  0  0  0  0  0  0  0  0  0  0
    7.5207   -8.5561   16.0576 C   0  0  0  0  0  0  0  0  0  0  0  0
    8.4741   -7.5657   15.4682 C   0  0  0  0  0  0  0  0  0  0  0  0
    9.7333   -7.7894   15.0373 C   0  0  0  0  0  0  0  0  0  0  0  0
   10.4392   -9.1191   15.0837 C   0  0  0  0  0  0  0  0  0  0  0  0
    6.5207   -8.5561   16.0576 O   0  0  0  0  0  0  0  0  0  0  0  0
 17 18  1  0  0  0
 17 21  2  0  0  0
 18 19  2  0  0  0
 19 20  1  0  0  0
 19 15  1  0  0  0
 15 16  2  0  0  0
 16 12  1  0  0  0
 12 13  2  0  0  0
 13 14  1  0  0  0
 13  1  1  0  0  0
  1  2  2  0  0  0
  2  3  1  0  0  0
  3  4  2  0  0  0
  4  5  1  0  0  0
  4  6  1  0  0  0
  6  7  1  0  0  0
  7  8  1  0  0  0
  8  9  1  0  0  0
  9 10  1  0  0  0
  9 11  1  0  0  0
  9  3  1  0  0  0
M  END
> <minimizedAffinity>
-5.97225

> <CNNscore>
0.7663099170

> <CNNaffinity>
5.3031663895

> <CNN_VS>
4.0638689995

> <CNNaffinity_variance>
0.3327504694

$$$$
